<?xml version="1.0" encoding="UTF-8"?>

<!-- generated on 03/07/20 20:31:16 by Eclipse SUMO netedit Version 1.4.0
<configuration xmlns:xsi="http://www.w3.org/2001/XMLSchema-instance" xsi:noNamespaceSchemaLocation="http://sumo.dlr.de/xsd/netconvertConfiguration.xsd">

    <input>
        <sumo-net-file value="C:\Users\Riley%20Kong\Documents\traffic\vcs2.net.xml"/>
    </input>

    <output>
        <output-file value="C:\Users\Riley%20Kong\Documents\traffic\vcs2.net.xml"/>
    </output>

    <processing>
        <geometry.min-radius.fix.railways value="false"/>
        <geometry.max-grade.fix value="false"/>
        <offset.disable-normalization value="true"/>
        <lefthand value="false"/>
    </processing>

    <junctions>
        <no-internal-links value="false"/>
        <no-turnarounds value="true"/>
        <junctions.corner-detail value="5"/>
        <junctions.limit-turn-speed value="5.5"/>
        <rectangular-lane-cut value="false"/>
    </junctions>

    <pedestrian>
        <walkingareas value="false"/>
    </pedestrian>

    <report>
        <aggregate-warnings value="5"/>
    </report>

</configuration>
-->

<net version="1.3" junctionCornerDetail="5" limitTurnSpeed="5.50" xmlns:xsi="http://www.w3.org/2001/XMLSchema-instance" xsi:noNamespaceSchemaLocation="http://sumo.dlr.de/xsd/net_file.xsd">

    <location netOffset="0.00,0.00" convBoundary="-368.07,-242.67,313.19,199.01" origBoundary="-10000000000.00,-10000000000.00,10000000000.00,10000000000.00" projParameter="!"/>

    <edge id=":gneJ11_0" function="internal">
        <lane id=":gneJ11_0_0" index="0" speed="4.40" length="1.04" shape="-171.33,87.53 -171.64,87.57 -171.84,87.63 -172.03,87.75 -172.26,87.95"/>
    </edge>
    <edge id=":gneJ11_1" function="internal">
        <lane id=":gneJ11_1_0" index="0" speed="7.11" length="3.13" shape="-174.44,85.60 -173.75,84.99 -173.20,84.65 -172.58,84.47 -171.67,84.35"/>
    </edge>
    <edge id=":gneJ11_w0" function="walkingarea">
        <lane id=":gneJ11_w0_0" index="0" allow="pedestrian" speed="1.00" length="2.96" width="3.20" shape="-171.17,89.12 -171.50,85.94 -171.50,85.94 -171.84,82.76 -175.52,84.42 -173.36,86.78 -173.34,86.78 -171.17,89.12"/>
    </edge>
    <edge id=":gneJ14_0" function="internal">
        <lane id=":gneJ14_0_0" index="0" speed="6.62" length="3.86" shape="-240.68,160.84 -240.72,159.85 -240.56,158.92 -240.22,158.04 -239.69,157.22"/>
    </edge>
    <edge id=":gneJ14_1" function="internal">
        <lane id=":gneJ14_1_0" index="0" speed="4.16" length="1.29" shape="-237.17,159.21 -237.35,159.49 -237.47,159.78 -237.52,160.09 -237.50,160.42"/>
    </edge>
    <edge id=":gneJ14_w0" function="walkingarea">
        <lane id=":gneJ14_w0_0" index="0" allow="pedestrian" speed="1.00" length="3.19" width="3.20" shape="-242.27,161.05 -239.09,160.64 -239.09,160.63 -235.92,160.21 -235.92,160.22 -238.42,158.21 -238.43,158.21 -240.94,156.22 -242.33,160.16 -242.27,159.31 -242.11,158.49 -241.83,157.70 -241.44,156.95"/>
    </edge>
    <edge id=":gneJ16_0" function="internal">
        <lane id=":gneJ16_0_0" index="0" speed="6.48" length="4.28" shape="-214.98,200.21 -216.07,200.35 -217.11,200.26 -218.10,199.93 -219.03,199.36"/>
    </edge>
    <edge id=":gneJ16_1" function="internal">
        <lane id=":gneJ16_1_0" index="0" speed="4.09" length="1.43" shape="-217.08,196.81 -216.77,197.00 -216.44,197.11 -216.10,197.14 -215.73,197.09"/>
    </edge>
    <edge id=":gneJ16_w0" function="walkingarea">
        <lane id=":gneJ16_w0_0" index="0" allow="pedestrian" speed="1.00" length="3.32" width="3.20" shape="-214.60,201.76 -215.35,198.65 -215.35,198.65 -216.11,195.54 -216.10,195.54 -218.06,198.07 -218.06,198.09 -220.00,200.63 -215.58,201.93 -216.53,201.95 -217.44,201.84 -218.33,201.58 -219.18,201.17"/>
    </edge>
    <edge id=":gneJ20_0" function="internal">
        <lane id=":gneJ20_0_0" index="0" speed="5.60" length="6.11" shape="66.94,132.92 65.75,131.32 64.54,130.35 63.31,129.99 62.04,130.25"/>
    </edge>
    <edge id=":gneJ20_1" function="internal">
        <lane id=":gneJ20_1_0" index="0" speed="7.97" length="15.12" shape="66.94,132.92 65.88,129.83 66.57,126.85 69.02,123.98 73.21,121.21"/>
    </edge>
    <edge id=":gneJ20_2" function="internal">
        <lane id=":gneJ20_2_0" index="0" speed="6.46" length="7.99" shape="69.15,131.55 67.90,130.16 66.29,129.48 64.34,129.51 62.04,130.25"/>
    </edge>
    <edge id=":gneJ20_3" function="internal">
        <lane id=":gneJ20_3_0" index="0" disallow="pedestrian tram rail_urban rail rail_electric rail_fast ship" speed="5.88" length="7.52" width="3.00" shape="74.73,124.03 72.69,125.39 71.52,126.83 71.22,128.34 71.79,129.93"/>
    </edge>
    <edge id=":gneJ20_4" function="internal">
        <lane id=":gneJ20_4_0" index="0" speed="13.89" length="14.13" shape="74.73,124.03 62.04,130.25"/>
    </edge>
    <edge id=":gneJ20_5" function="internal">
        <lane id=":gneJ20_5_0" index="0" speed="13.89" length="13.89" shape="60.72,127.29 73.21,121.21"/>
    </edge>
    <edge id=":gneJ20_6" function="internal">
        <lane id=":gneJ20_6_0" index="0" disallow="pedestrian tram rail_urban rail rail_electric rail_fast ship" speed="7.98" length="12.59" width="3.00" shape="60.72,127.29 64.20,126.23 67.21,126.32 69.74,127.55 71.79,129.93"/>
    </edge>
    <edge id=":gneJ20_w0" function="walkingarea">
        <lane id=":gneJ20_w0_0" index="0" allow="pedestrian" speed="1.00" length="9.79" width="3.20" shape="73.97,122.62 72.45,119.80 60.08,125.82 61.37,128.76 61.39,128.79 62.69,131.71 66.09,133.44 67.79,132.39 67.13,130.77 67.14,129.15 67.84,127.52 69.21,125.89 71.25,124.26"/>
    </edge>
    <edge id=":gneJ21_0" function="internal">
        <lane id=":gneJ21_0_0" index="0" disallow="pedestrian tram rail_urban rail rail_electric rail_fast ship" speed="13.89" length="7.44" shape="161.51,82.00 159.32,82.21 157.85,82.53 156.43,83.09 154.41,83.99"/>
    </edge>
    <edge id=":gneJ21_1" function="internal">
        <lane id=":gneJ21_1_0" index="0" disallow="pedestrian tram rail_urban rail rail_electric rail_fast ship" speed="6.65" length="6.63" shape="153.13,81.03 154.63,80.15 155.70,78.99 156.33,77.54 156.52,75.81"/>
    </edge>
    <edge id=":gneJ22_0" function="internal">
        <lane id=":gneJ22_0_0" index="0" disallow="pedestrian tram rail_urban rail rail_electric rail_fast ship" speed="13.89" length="0.85" shape="164.91,6.77 165.05,6.56 165.16,6.42 165.30,6.32 165.52,6.19"/>
    </edge>
    <edge id=":gneJ24_0" function="internal">
        <lane id=":gneJ24_0_0" index="0" disallow="pedestrian tram rail_urban rail rail_electric rail_fast ship" speed="13.89" length="12.25" shape="288.53,-37.04 297.72,-45.14"/>
    </edge>
    <edge id=":gneJ24_1" function="internal">
        <lane id=":gneJ24_1_0" index="0" disallow="pedestrian tram rail_urban rail rail_electric rail_fast ship" speed="5.49" length="9.62" shape="288.53,-37.04 290.98,-38.84 292.74,-39.03 293.80,-37.62 294.18,-34.60"/>
    </edge>
    <edge id=":gneJ25_0" function="internal">
        <lane id=":gneJ25_0_0" index="0" disallow="pedestrian tram rail_urban rail rail_electric rail_fast ship" speed="4.08" length="1.50" shape="314.14,-43.40 314.43,-43.14 314.63,-42.84 314.75,-42.49 314.79,-42.11"/>
    </edge>
    <edge id=":gneJ26_0" function="internal">
        <lane id=":gneJ26_0_0" index="0" disallow="pedestrian tram rail_urban rail rail_electric rail_fast ship" speed="3.90" length="2.72" shape="314.12,50.21 314.01,50.96 313.68,51.47 313.14,51.75 312.39,51.79"/>
    </edge>
    <edge id=":gneJ27_0" function="internal">
        <lane id=":gneJ27_0_0" index="0" disallow="pedestrian tram rail_urban rail rail_electric rail_fast ship" speed="13.89" length="14.34" shape="304.97,51.18 301.65,51.17 298.69,51.73 295.43,52.85 291.20,54.53"/>
    </edge>
    <edge id=":gneJ27_1" function="internal">
        <lane id=":gneJ27_1_0" index="0" disallow="pedestrian tram rail_urban rail rail_electric rail_fast ship" speed="7.55" length="8.99" shape="294.73,44.59 294.45,46.94 293.57,48.88 292.10,50.42 290.02,51.55"/>
    </edge>
    <edge id=":gneJ3_0" function="internal">
        <lane id=":gneJ3_0_0" index="0" speed="13.89" length="10.60" shape="-194.45,-70.31 -196.87,-71.95 -199.61,-71.95 -202.48,-72.01 -205.30,-73.84"/>
        <lane id=":gneJ3_0_1" index="1" speed="13.89" length="10.60" shape="-194.45,-70.31 -196.55,-72.35 -198.54,-73.17 -200.59,-73.95 -202.85,-75.89"/>
        <lane id=":gneJ3_0_2" index="2" speed="13.89" length="10.60" shape="-194.45,-70.31 -200.39,-77.94"/>
    </edge>
    <edge id=":gneJ3_3" function="internal">
        <lane id=":gneJ3_3_0" index="0" speed="13.89" length="12.41" shape="-193.02,-84.09 -191.64,-80.86 -192.11,-77.94 -192.74,-75.12 -191.86,-72.20"/>
    </edge>
    <edge id=":gneJ3_w0" function="walkingarea">
        <lane id=":gneJ3_w0_0" index="0" allow="pedestrian" speed="1.00" length="11.66" width="3.20" shape="-195.75,-69.37 -193.16,-71.25 -193.15,-71.26 -190.57,-73.14 -191.79,-85.11 -194.25,-83.06 -194.25,-83.06 -196.70,-81.01 -196.70,-81.01 -199.16,-78.96 -199.16,-78.96 -201.62,-76.91 -201.62,-76.91 -204.08,-74.86 -204.08,-74.86 -206.53,-72.81 -197.45,-70.92 -199.21,-71.33 -201.03,-71.18 -202.86,-71.01 -204.71,-71.37"/>
    </edge>
    <edge id=":gneJ31_0" function="internal">
        <lane id=":gneJ31_0_0" index="0" disallow="pedestrian tram rail_urban rail rail_electric rail_fast ship" speed="6.57" length="7.60" shape="216.86,80.57 214.95,81.23 213.56,82.33 212.70,83.88 212.36,85.88"/>
    </edge>
    <edge id=":gneJ31_1" function="internal">
        <lane id=":gneJ31_1_0" index="0" disallow="pedestrian tram rail_urban rail rail_electric rail_fast ship" speed="8.08" length="11.94" shape="216.24,77.43 213.23,78.47 211.04,80.20 209.69,82.64 209.17,85.78"/>
    </edge>
    <edge id=":gneJ32_0" function="internal">
        <lane id=":gneJ32_0_0" index="0" disallow="pedestrian tram rail_urban rail rail_electric rail_fast ship" speed="6.08" length="7.42" shape="209.92,162.65 209.57,164.64 208.68,166.08 207.23,166.96 205.24,167.30"/>
    </edge>
    <edge id=":gneJ32_1" function="internal">
        <lane id=":gneJ32_1_0" index="0" disallow="pedestrian tram rail_urban rail rail_electric rail_fast ship" speed="3.91" length="2.47" shape="206.72,162.55 206.60,163.21 206.31,163.69 205.82,163.99 205.16,164.10"/>
    </edge>
    <edge id=":gneJ38_0" function="internal">
        <lane id=":gneJ38_0_0" index="0" disallow="pedestrian" speed="13.89" length="14.72" shape="177.62,168.02 173.34,167.61 170.48,166.55 167.63,165.47 163.34,165.01"/>
    </edge>
    <edge id=":gneJ38_1" function="internal">
        <lane id=":gneJ38_1_0" index="0" disallow="pedestrian" speed="13.89" length="13.94" shape="177.54,164.82 173.43,164.87 170.57,164.52 167.93,163.42 164.48,161.22"/>
    </edge>
    <edge id=":gneJ6_0" function="internal">
        <lane id=":gneJ6_0_0" index="0" speed="13.89" length="0.56" shape="-90.70,44.35 -90.79,44.21 -90.87,44.12 -90.95,44.05 -91.08,43.94"/>
    </edge>
    <edge id=":gneJ6_1" function="internal">
        <lane id=":gneJ6_1_0" index="0" speed="10.51" length="1.69" shape="-89.17,41.38 -88.77,41.69 -88.51,41.92 -88.29,42.19 -88.01,42.60"/>
    </edge>
    <edge id=":gneJ6_w0" function="walkingarea">
        <lane id=":gneJ6_w0_0" index="0" allow="pedestrian" speed="1.00" length="2.56" width="3.20" shape="-92.06,45.20 -89.35,43.50 -89.35,43.47 -86.67,41.73 -88.20,40.10 -90.13,42.66 -90.13,42.66 -92.04,45.22"/>
    </edge>
    <edge id=":gneJ65_w0" function="walkingarea">
        <lane id=":gneJ65_w0_0" index="0" allow="pedestrian" speed="1.00" length="25.60" width="3.20" shape="-368.07,-70.40 -370.22,-72.77 -370.22,-72.77 -372.36,-75.15 -372.36,-75.15 -374.51,-77.52 -374.51,-77.52 -376.65,-79.90 -376.65,-79.90 -378.80,-82.27 -359.49,-60.90 -361.63,-63.28 -361.63,-63.28 -363.78,-65.65 -363.78,-65.65 -365.92,-68.03 -365.92,-68.03 -368.07,-70.40"/>
    </edge>
    <edge id=":gneJ66_w0" function="walkingarea">
        <lane id=":gneJ66_w0_0" index="0" allow="pedestrian" speed="1.00" length="25.60" width="3.20" shape="-180.28,-242.67 -178.10,-240.33 -178.10,-240.33 -175.91,-237.99 -175.91,-237.99 -173.73,-235.65 -173.73,-235.65 -171.55,-233.31 -171.55,-233.31 -169.36,-230.97 -189.01,-252.03 -186.83,-249.69 -186.83,-249.69 -184.65,-247.35 -184.65,-247.35 -182.46,-245.01 -182.46,-245.01 -180.28,-242.67"/>
    </edge>
    <edge id=":gneJ67_w0" function="walkingarea">
        <lane id=":gneJ67_w0_0" index="0" allow="pedestrian" speed="1.00" length="16.00" width="3.20" shape="-324.59,-232.45 -322.09,-234.44 -322.09,-234.44 -319.59,-236.44 -319.59,-236.44 -317.08,-238.43 -332.10,-226.47 -329.59,-228.46 -329.59,-228.46 -327.09,-230.46 -327.09,-230.46 -324.59,-232.45"/>
    </edge>
    <edge id=":gneJ8_0" function="internal">
        <lane id=":gneJ8_0_0" index="0" speed="6.40" length="4.87" shape="-81.10,68.61 -81.36,69.85 -81.88,70.91 -82.65,71.79 -83.69,72.49"/>
    </edge>
    <edge id=":gneJ8_1" function="internal">
        <lane id=":gneJ8_1_0" index="0" speed="4.02" length="1.62" shape="-85.18,69.64 -84.83,69.41 -84.57,69.12 -84.40,68.76 -84.32,68.35"/>
    </edge>
    <edge id=":gneJ8_w0" function="walkingarea">
        <lane id=":gneJ8_w0_0" index="0" allow="pedestrian" speed="1.00" length="3.51" width="3.20" shape="-79.51,68.76 -82.70,68.46 -82.73,68.48 -85.92,68.22 -85.90,68.21 -84.45,71.06 -84.43,71.07 -82.95,73.91 -79.70,69.89 -80.04,70.91 -80.54,71.82 -81.19,72.62 -81.99,73.32"/>
    </edge>
    <edge id=":jun_0" function="internal">
        <lane id=":jun_0_0" index="0" disallow="pedestrian" speed="13.89" length="13.36" shape="93.87,162.08 90.43,160.07 87.83,158.91 85.59,157.42 83.23,154.39"/>
    </edge>
    <edge id=":jun_1" function="internal">
        <lane id=":jun_1_0" index="0" disallow="pedestrian" speed="9.87" length="8.56" shape="95.05,158.30 90.80,158.08 87.41,157.36 86.66,156.99"/>
    </edge>
    <edge id=":jun_2" function="internal">
        <lane id=":jun_2_0" index="0" disallow="pedestrian" speed="9.87" length="4.37" shape="86.66,156.99 84.89,156.13 83.23,154.39"/>
    </edge>
    <edge id=":jun_c0" function="crossing" crossingEdges="e14 -e14">
        <lane id=":jun_c0_0" index="0" allow="pedestrian" speed="1.00" length="6.19" width="4.00" shape="82.92,156.93 88.20,153.71"/>
    </edge>
    <edge id=":jun_w0" function="walkingarea">
        <lane id=":jun_w0_0" index="0" allow="pedestrian" speed="1.00" length="7.96" width="4.00" shape="81.87,155.23 80.16,156.28 79.94,158.66 82.88,161.37 91.79,165.02 92.94,163.39 90.42,161.81 88.38,160.81 86.65,160.02 85.09,159.07 83.55,157.59"/>
    </edge>
    <edge id=":jun_w1" function="walkingarea">
        <lane id=":jun_w1_0" index="0" allow="pedestrian" speed="1.00" length="6.76" width="4.00" shape="95.04,156.70 95.01,153.50 88.86,150.96 87.15,152.01 88.18,153.45 89.33,154.63 90.58,155.54 91.95,156.19 93.44,156.58"/>
    </edge>
    <edge id=":mont_0" function="internal">
        <lane id=":mont_0_0" index="0" speed="7.00" length="10.94" shape="-261.35,-141.01 -263.85,-143.45 -266.23,-144.65 -268.50,-144.61 -270.66,-143.33"/>
    </edge>
    <edge id=":mont_1" function="internal">
        <lane id=":mont_1_0" index="0" speed="13.89" length="39.00" shape="-258.90,-143.06 -283.57,-173.31"/>
        <lane id=":mont_1_1" index="1" speed="13.89" length="39.00" shape="-256.44,-145.11 -281.07,-175.30"/>
    </edge>
    <edge id=":mont_3" function="internal">
        <lane id=":mont_3_0" index="0" speed="11.76" length="30.50" shape="-256.44,-145.11 -261.59,-152.85 -263.58,-159.96 -262.42,-166.42 -258.10,-172.25"/>
    </edge>
    <edge id=":mont_4" function="internal">
        <lane id=":mont_4_0" index="0" speed="7.14" length="10.62" shape="-247.18,-160.55 -249.33,-158.07 -250.36,-155.70 -250.28,-153.43 -249.07,-151.26"/>
    </edge>
    <edge id=":mont_5" function="internal">
        <lane id=":mont_5_0" index="0" speed="13.89" length="29.07" shape="-249.37,-162.89 -256.00,-157.39 -261.03,-154.23 -266.09,-151.10 -272.81,-145.70"/>
        <lane id=":mont_5_1" index="1" speed="13.89" length="29.07" shape="-251.55,-165.23 -258.17,-159.74 -263.19,-156.59 -268.25,-153.47 -274.95,-148.08"/>
        <lane id=":mont_5_2" index="2" speed="13.89" length="29.07" shape="-253.73,-167.57 -260.34,-162.09 -265.36,-158.95 -270.40,-155.83 -277.10,-150.45"/>
    </edge>
    <edge id=":mont_8" function="internal">
        <lane id=":mont_8_0" index="0" speed="11.06" length="29.71" shape="-255.92,-169.91 -261.97,-166.06 -268.18,-165.68 -274.55,-168.76 -281.07,-175.30"/>
    </edge>
    <edge id=":mont_9" function="internal">
        <lane id=":mont_9_0" index="0" speed="6.80" length="10.54" shape="-273.56,-181.29 -271.23,-178.94 -268.97,-177.82 -266.78,-177.93 -264.65,-179.27"/>
    </edge>
    <edge id=":mont_10" function="internal">
        <lane id=":mont_10_0" index="0" speed="13.89" length="38.86" shape="-276.06,-179.29 -251.53,-149.21"/>
        <lane id=":mont_10_1" index="1" speed="13.89" length="38.86" shape="-278.57,-177.30 -253.98,-147.16"/>
    </edge>
    <edge id=":mont_12" function="internal">
        <lane id=":mont_12_0" index="0" speed="11.71" length="30.09" shape="-278.57,-177.30 -273.58,-169.48 -271.67,-162.40 -272.84,-156.06 -277.10,-150.45"/>
    </edge>
    <edge id=":mont_13" function="internal">
        <lane id=":mont_13_0" index="0" speed="7.05" length="10.27" shape="-287.83,-162.32 -285.77,-164.64 -284.80,-166.91 -284.90,-169.13 -286.07,-171.31"/>
    </edge>
    <edge id=":mont_14" function="internal">
        <lane id=":mont_14_0" index="0" speed="13.89" length="28.87" shape="-285.68,-159.95 -279.03,-165.29 -274.01,-168.37 -269.03,-171.49 -262.46,-176.93"/>
        <lane id=":mont_14_1" index="1" speed="13.89" length="28.87" shape="-283.53,-157.57 -276.87,-162.92 -271.85,-166.02 -266.86,-169.14 -260.28,-174.59"/>
        <lane id=":mont_14_2" index="2" speed="13.89" length="28.87" shape="-281.39,-155.20 -274.72,-160.56 -269.69,-163.66 -264.68,-166.79 -258.10,-172.25"/>
    </edge>
    <edge id=":mont_17" function="internal">
        <lane id=":mont_17_0" index="0" speed="11.18" length="29.59" shape="-279.24,-152.83 -273.28,-156.44 -267.08,-156.70 -260.64,-153.60 -253.98,-147.16"/>
    </edge>
    <edge id=":mont_w0" function="walkingarea">
        <lane id=":mont_w0_0" index="0" allow="pedestrian" speed="1.00" length="28.57" width="3.20" shape="-262.58,-139.98 -260.13,-142.03 -260.13,-142.03 -257.67,-144.08 -257.67,-144.08 -255.21,-146.13 -255.21,-146.13 -252.75,-148.18 -252.75,-148.18 -250.30,-150.23 -250.30,-150.23 -247.84,-152.28 -246.09,-159.38 -248.27,-161.72 -248.27,-161.72 -250.46,-164.06 -250.46,-164.06 -252.64,-166.40 -252.64,-166.40 -254.82,-168.74 -254.82,-168.74 -257.01,-171.08 -257.01,-171.08 -259.19,-173.42 -259.19,-173.42 -261.37,-175.76 -261.37,-175.76 -263.56,-178.10 -263.56,-178.10 -265.74,-180.44 -272.31,-182.28 -274.81,-180.29 -274.81,-180.29 -277.32,-178.29 -277.32,-178.29 -279.82,-176.30 -279.82,-176.30 -282.32,-174.30 -282.32,-174.30 -284.82,-172.31 -284.82,-172.31 -287.32,-170.31 -288.90,-163.51 -286.75,-161.13 -286.75,-161.13 -284.61,-158.76 -284.61,-158.76 -282.46,-156.39 -282.46,-156.39 -280.32,-154.01 -280.32,-154.01 -278.17,-151.64 -278.17,-151.64 -276.03,-149.26 -276.03,-149.26 -273.88,-146.89 -273.88,-146.89 -271.73,-144.52 -271.73,-144.52 -269.59,-142.14 -263.90,-141.39 -265.16,-142.37 -266.35,-142.94 -267.49,-143.09 -268.57,-142.83"/>
    </edge>

    <edge id="-e14" from="gneJ20" to="jun" priority="-1">
        <lane id="-e14_0" index="0" allow="pedestrian" speed="13.89" length="26.86" width="2.00" shape="73.92,128.62 88.01,151.48"/>
        <lane id="-e14_1" index="1" disallow="pedestrian tram rail_urban rail rail_electric rail_fast ship" speed="13.89" length="26.86" width="3.00" shape="71.79,129.93 85.88,152.79"/>
    </edge>
    <edge id="-gneE19" from="gneJ21" to="gneJ20" priority="-1" shape="158.18,80.61 128.56,93.44 67.62,126.02">
        <lane id="-gneE19_0" index="0" disallow="pedestrian tram rail_urban rail rail_electric rail_fast ship" speed="13.89" length="89.24" shape="154.41,83.99 129.26,94.88 74.73,124.03"/>
    </edge>
    <edge id="drop1" from="gneJ38" to="jun" priority="-1" shape="176.26,163.25 99.63,164.19 84.60,153.58">
        <lane id="drop1_0" index="0" allow="pedestrian" speed="13.89" length="71.50" width="2.00" shape="163.37,167.61 98.32,168.41 92.37,164.20"/>
        <lane id="drop1_1" index="1" disallow="pedestrian" speed="13.89" length="71.50" shape="163.34,165.01 99.13,165.80 93.87,162.08"/>
    </edge>
    <edge id="drop2" from="gneJ38" to="jun" priority="-1" shape="175.99,163.25 160.87,152.96 84.60,153.58">
        <lane id="drop2_0" index="0" disallow="pedestrian" speed="13.89" length="71.50" shape="164.48,161.22 159.41,157.77 95.05,158.30"/>
        <lane id="drop2_1" index="1" allow="pedestrian" speed="13.89" length="71.50" shape="166.28,158.58 160.38,154.56 95.02,155.10"/>
    </edge>
    <edge id="e1" from="mont" to="gneJ3" priority="-1">
        <lane id="e1_0" index="0" speed="13.89" length="87.48" shape="-249.07,-151.26 -193.02,-84.09"/>
        <lane id="e1_1" index="1" speed="13.89" length="87.48" shape="-251.53,-149.21 -195.48,-82.04"/>
        <lane id="e1_2" index="2" speed="13.89" length="87.48" shape="-253.98,-147.16 -197.93,-79.99"/>
    </edge>
    <edge id="e10" from="gneJ22" to="gneJ24" priority="-1" shape="166.28,7.60 179.49,0.42 206.69,-4.24 258.53,-14.54 274.75,-22.04 292.55,-38.59">
        <lane id="e10_0" index="0" disallow="pedestrian tram rail_urban rail rail_electric rail_fast ship" speed="13.89" length="133.26" shape="165.52,6.19 178.96,-1.11 206.40,-5.81 258.03,-16.07 273.85,-23.39 288.53,-37.04"/>
    </edge>
    <edge id="e11" from="gneJ27" to="gneJ31" priority="-1" shape="293.16,48.60 232.27,72.59 207.83,77.48">
        <lane id="e11_0" index="0" disallow="pedestrian tram rail_urban rail rail_electric rail_fast ship" speed="13.89" length="78.69" shape="291.20,54.53 233.63,77.21 216.86,80.57"/>
        <lane id="e11_1" index="1" disallow="pedestrian tram rail_urban rail rail_electric rail_fast ship" speed="13.89" length="78.69" shape="290.02,51.55 232.72,74.13 216.24,77.43"/>
    </edge>
    <edge id="e12" from="gneJ31" to="gneJ32" priority="-1">
        <lane id="e12_0" index="0" disallow="pedestrian tram rail_urban rail rail_electric rail_fast ship" speed="13.89" length="76.81" shape="212.36,85.88 209.92,162.65"/>
        <lane id="e12_1" index="1" disallow="pedestrian tram rail_urban rail rail_electric rail_fast ship" speed="13.89" length="76.81" shape="209.17,85.78 206.72,162.55"/>
    </edge>
    <edge id="e13" from="gneJ32" to="gneJ38" priority="-1">
        <lane id="e13_0" index="0" disallow="pedestrian tram rail_urban rail rail_electric rail_fast ship" speed="13.89" length="27.63" shape="205.24,167.30 177.62,168.02"/>
        <lane id="e13_1" index="1" disallow="pedestrian tram rail_urban rail rail_electric rail_fast ship" speed="13.89" length="27.63" shape="205.16,164.10 177.54,164.82"/>
    </edge>
    <edge id="e14" from="jun" to="gneJ20" priority="-1" spreadType="center" shape="82.49,155.10 65.40,127.37">
        <lane id="e14_0" index="0" allow="pedestrian" speed="13.89" length="26.83" width="2.00" shape="81.01,155.76 66.94,132.92"/>
        <lane id="e14_1" index="1" disallow="pedestrian" speed="13.89" length="26.83" shape="83.23,154.39 69.15,131.55"/>
    </edge>
    <edge id="e15" from="gneJ20" to="gneJ16" priority="-1" shape="67.62,126.02 18.08,148.06 -78.12,165.65 -216.85,199.01">
        <lane id="e15_0" index="0" speed="13.89" length="286.64" shape="62.04,130.25 18.56,149.60 -77.79,167.22 -214.98,200.21"/>
    </edge>
    <edge id="e16" from="gneJ16" to="gneJ14" priority="-1" shape="-216.85,199.01 -228.06,190.44 -236.85,177.98 -239.27,159.27">
        <lane id="e16_0" index="0" speed="13.89" length="46.61" shape="-219.03,199.36 -229.23,191.56 -238.39,178.58 -240.68,160.84"/>
    </edge>
    <edge id="e17" from="gneJ14" to="gneJ11" priority="-1" shape="-239.27,159.27 -203.97,114.78 -172.56,86.05">
        <lane id="e17_0" index="0" speed="13.89" length="97.18" shape="-239.69,157.22 -205.14,113.69 -174.44,85.60"/>
    </edge>
    <edge id="e18" from="gneJ11" to="gneJ8" priority="-1" shape="-172.56,86.05 -156.74,84.37 -127.88,86.95 -100.82,79.41 -82.87,70.26">
        <lane id="e18_0" index="0" speed="13.89" length="89.70" shape="-171.67,84.35 -156.75,82.76 -128.03,85.33 -101.40,77.91 -85.18,69.64"/>
    </edge>
    <edge id="e19" from="gneJ8" to="gneJ6" priority="-1" shape="-82.87,70.26 -81.69,55.69 -89.65,43.02">
        <lane id="e19_0" index="0" speed="13.89" length="26.16" shape="-84.32,68.35 -83.33,56.09 -90.70,44.35"/>
    </edge>
    <edge id="e2" from="gneJ3" to="gneJ6" priority="-1" shape="-196.03,-75.21 -147.17,-8.06 -116.43,22.90 -89.65,43.02">
        <lane id="e2_0" index="0" speed="13.89" length="154.21" shape="-191.86,-72.20 -145.95,-9.10 -115.38,21.69 -89.17,41.38"/>
    </edge>
    <edge id="e20" from="gneJ6" to="gneJ3" priority="-1" shape="-89.65,43.02 -116.45,22.94 -147.26,-8.00 -196.03,-75.21">
        <lane id="e20_0" index="0" speed="13.89" length="155.19" shape="-91.08,43.94 -117.50,24.15 -148.48,-6.96 -194.45,-70.31"/>
    </edge>
    <edge id="e21" from="gneJ3" to="mont" priority="-1">
        <lane id="e21_0" index="0" speed="13.89" length="87.48" shape="-205.30,-73.84 -261.35,-141.01"/>
        <lane id="e21_1" index="1" speed="13.89" length="87.48" shape="-202.85,-75.89 -258.90,-143.06"/>
        <lane id="e21_2" index="2" speed="13.89" length="87.48" shape="-200.39,-77.94 -256.44,-145.11"/>
    </edge>
    <edge id="e3" from="gneJ6" to="gneJ8" priority="-1" shape="-89.65,43.02 -81.45,55.62 -82.87,70.26">
        <lane id="e3_0" index="0" speed="13.89" length="28.51" shape="-88.01,42.60 -79.80,55.22 -81.10,68.61"/>
    </edge>
    <edge id="e4" from="gneJ8" to="gneJ11" priority="-1" shape="-82.87,70.26 -100.64,79.53 -127.98,87.14 -156.80,84.42 -172.56,86.05">
        <lane id="e4_0" index="0" speed="13.89" length="91.00" shape="-83.69,72.49 -100.05,81.03 -127.84,88.76 -156.79,86.03 -171.33,87.53"/>
    </edge>
    <edge id="e5" from="gneJ11" to="gneJ14" priority="-1" shape="-172.56,86.05 -203.35,114.66 -239.27,159.27">
        <lane id="e5_0" index="0" speed="13.89" length="96.64" shape="-172.26,87.95 -202.18,115.75 -237.17,159.21"/>
    </edge>
    <edge id="e6" from="gneJ14" to="gneJ16" priority="-1" shape="-239.27,159.27 -236.76,178.19 -227.94,190.42 -216.85,199.01">
        <lane id="e6_0" index="0" speed="13.89" length="44.02" shape="-237.50,160.42 -235.23,177.58 -226.78,189.30 -217.08,196.81"/>
    </edge>
    <edge id="e7" from="gneJ16" to="gneJ20" priority="-1" shape="-216.85,199.01 -78.31,165.49 18.19,147.64 67.62,126.02">
        <lane id="e7_0" index="0" speed="13.89" length="285.98" shape="-215.73,197.09 -78.64,163.92 17.72,146.10 60.72,127.29"/>
    </edge>
    <edge id="e8" from="gneJ20" to="gneJ21" priority="-1" shape="67.62,126.02 128.92,93.13 158.18,80.61">
        <lane id="e8_0" index="0" speed="13.89" length="89.52" shape="73.21,121.21 128.23,91.69 153.13,81.03"/>
    </edge>
    <edge id="e9" from="gneJ21" to="gneJ22" priority="-1" shape="158.18,80.61 157.44,22.18 166.28,7.60">
        <lane id="e9_0" index="0" disallow="pedestrian tram rail_urban rail rail_electric rail_fast ship" speed="13.89" length="71.59" shape="156.52,75.81 155.83,21.74 164.91,6.77"/>
    </edge>
    <edge id="ein" from="gneJ66" to="mont" priority="-1">
        <lane id="ein_0" index="0" speed="13.89" length="104.94" shape="-170.46,-232.14 -247.18,-160.55"/>
        <lane id="ein_1" index="1" speed="13.89" length="104.94" shape="-172.64,-234.48 -249.37,-162.89"/>
        <lane id="ein_2" index="2" speed="13.89" length="104.94" shape="-174.82,-236.82 -251.55,-165.23"/>
        <lane id="ein_3" index="3" speed="13.89" length="104.94" shape="-177.01,-239.16 -253.73,-167.57"/>
        <lane id="ein_4" index="4" speed="13.89" length="104.94" shape="-179.19,-241.50 -255.92,-169.91"/>
    </edge>
    <edge id="eout" from="mont" to="gneJ66" priority="-1">
        <lane id="eout_0" index="0" speed="13.89" length="104.94" shape="-264.65,-179.27 -187.92,-250.86"/>
        <lane id="eout_1" index="1" speed="13.89" length="104.94" shape="-262.46,-176.93 -185.74,-248.52"/>
        <lane id="eout_2" index="2" speed="13.89" length="104.94" shape="-260.28,-174.59 -183.55,-246.18"/>
        <lane id="eout_3" index="3" speed="13.89" length="104.94" shape="-258.10,-172.25 -181.37,-243.84"/>
    </edge>
    <edge id="park1" from="gneJ24" to="gneJ27" priority="-1">
        <lane id="park1_0" index="0" disallow="pedestrian tram rail_urban rail rail_electric rail_fast ship" speed="13.89" length="79.19" shape="294.18,-34.60 294.73,44.59"/>
    </edge>
    <edge id="park2a" from="gneJ24" to="gneJ25" priority="-1" shape="292.55,-38.59 304.33,-48.71 313.19,-42.12">
        <lane id="park2a_0" index="0" disallow="pedestrian tram rail_urban rail rail_electric rail_fast ship" speed="13.89" length="20.94" shape="297.72,-45.14 304.26,-50.76 314.14,-43.40"/>
    </edge>
    <edge id="park2b" from="gneJ25" to="gneJ26" priority="-1">
        <lane id="park2b_0" index="0" disallow="pedestrian tram rail_urban rail rail_electric rail_fast ship" speed="13.89" length="92.32" shape="314.79,-42.11 314.12,50.21"/>
    </edge>
    <edge id="park2c" from="gneJ26" to="gneJ27" priority="-1">
        <lane id="park2c_0" index="0" disallow="pedestrian tram rail_urban rail rail_electric rail_fast ship" speed="13.89" length="7.44" shape="312.39,51.79 304.97,51.18"/>
    </edge>
    <edge id="ped1" from="gneJ31" to="gneJ21" priority="-1">
        <lane id="ped1_0" index="0" disallow="pedestrian tram rail_urban rail rail_electric rail_fast ship" speed="13.89" length="43.04" shape="204.46,79.30 161.51,82.00"/>
    </edge>
    <edge id="ped3" from="jun" to="gneJ49" priority="-1">