<routes>
    <vType id="car" vClass="passenger" maxSpeed="5" speedFactor="1.3" speedDev="0.1" sigma="0.1" departPosLat="free" color="0, 0, 255"/>
    <vType id="t" vClass="rail" />
    <route id="w11" edges="win e1 e2 e3 e4 e5 e6 e7 e8 e9 e10 park1 e11 e12 e13 drop1 e14 e15 e16 e17 e18 e19 e20 e21 wout" />
    <route id="w12" edges="win e1 e2 e3 e4 e5 e6 e7 e8 e9 e10 park2a park2b park2c e11 e12 e13 drop1 e14 e15 e16 e17 e18 e19 e20 e21 wout" />
    <route id="w21" edges="win e1 e2 e3 e4 e5 e6 e7 e8 e9 e10 park1 e11 e12 e13 drop2 e14 e15 e16 e17 e18 e19 e20 e21 wout" />
    <route id="w22" edges="win e1 e2 e3 e4 e5 e6 e7 e8 e9 e10 park2a park2b park2c e11 e12 e13 drop2 e14 e15 e16 e17 e18 e19 e20 e21 wout" />
    
    <route id="e11" edges="ein e1 e2 e3 e4 e5 e6 e7 e8 e9 e10 park1 e11 e12 e13 drop1 e14 e15 e16 e17 e18 e19 e20 e21 eout" />
    <route id="e12" edges="ein e1 e2 e3 e4 e5 e6 e7 e8 e9 e10 park2a park2b park2c e11 e12 e13 drop1 e14 e15 e16 e17 e18 e19 e20 e21 eout" />
    <route id="e21" edges="ein e1 e2 e3 e4 e5 e6 e7 e8 e9 e10 park1 e11 e12 e13 drop2 e14 e15 e16 e17 e18 e19 e20 e21 eout" />
    <route id="e22" edges="ein e1 e2 e3 e4 e5 e6 e7 e8 e9 e10 park2a park2b park2c e11 e12 e13 drop2 e14 e15 e16 e17 e18 e19 e20 e21 eout" />

    <route id="s11" edges="sin e1 e2 e3 e4 e5 e6 e7 e8 e9 e10 park1 e11 e12 e13 drop1 e14 e15 e16 e17 e18 e19 e20 e21 sout" />
    <route id="s12" edges="sin e1 e2 e3 e4 e5 e6 e7 e8 e9 e10 park2a park2b park2c e11 e12 e13 drop1 e14 e15 e16 e17 e18 e19 e20 e21 sout" />
    <route id="s21" edges="sin e1 e2 e3 e4 e5 e6 e7 e8 e9 e10 park1 e11 e12 e13 drop2 e14 e15 e16 e17 e18 e19 e20 e21 sout" />
    <route id="s22" edges="sin e1 e2 e3 e4 e5 e6 e7 e8 e9 e10 park2a park2b park2c e11 e12 e13 drop2 e14 e15 e16 e17 e18 e19 e20 e21 sout" />

    <route id="mont-we" edges="win eout" />
    <route id="mont-ws" edges="win sout" />
    <route id="mont-ew" edges="ein wout" />
    <route id="mont-es" edges="ein sout" />
    <route id="mont-sw" edges="sin wout" />
    <route id="mont-se" edges="sin eout" />
    <flow id="car_we" type="car" begin="0" end="2000" number="150" probablility="0.1" route="mont-we"/>
    <flow id="car_ws" type="car" begin="0" end="2000" number="150" probablility="0.1" route="mont-ws"/>
    <flow id="car_ew" type="car" begin="0" end="2000" number="150" probablility="0.1" route="mont-ew"/>
    <flow id="car_es" type="car" begin="0" end="2000" number="150" probablility="0.1" route="mont-es"/>
    <flow id="car_sw" type="car" begin="0" end="2000" number="150" probablility="0.1" route="mont-sw"/>
    <flow id="car_se" type="car" begin="0" end="2000" number="150" probablility="0.1" route="mont-se"/>
    <!-- <route id='rt' edges="-gneE4 gneE5" /> -->
    <!-- <flow id="flowt" type="t" begin="0" end="3600" period="300" route="rt"/> -->

    <!-- <flow id="car_w_11" type="car" begin="0" end="5000" number="125" probablility="0.5" route="w11"/>
    <flow id="car_w_12" type="car" begin="0" end="5000" number="125" probablility="0.5" route="w12"/>
    <flow id="car_w_21" type="car" begin="0" end="5000" number="125" probablility="0.5" route="w21"/>
    <flow id="car_w_22" type="car" begin="0" end="5000" number="125" probablility="0.5" route="w22"/>

    <flow id="car_e_11" type="car" begin="0" end="5000" number="125" probablility="0.5" route="e11"/>
    <flow id="car_e_12" type="car" begin="0" end="5000" number="125" probablility="0.5" route="e12"/>
    <flow id="car_e_21" type="car" begin="0" end="5000" number="125" probablility="0.5" route="e21"/>
    <flow id="car_e_22" type="car" begin="0" end="5000" number="125" probablility="0.5" route="e22"/>
    
    <flow id="car_s_11" type="car" begin="0" end="5000" number="150" probablility="0.5" route="s11"/>
    <flow id="car_s_12" type="car" begin="0" end="5000" number="150" probablility="0.5" route="s12"/>
    <flow id="car_s_21" type="car" begin="0" end="5000" number="150" probablility="0.5" route="s21"/>
    <flow id="car_s_22" type="car" begin="0" end="5000" number="150" probablility="0.5" route="s22"/> -->

    <!-- <personFlow id="ped1" begin="250" end="3950" number="400">
        <walk from="-e14" to="ped3" />
    </personFlow>
    <personFlow id="ped2" begin="350" end="3950" number="600">
        <walk from="drop2b" to="ped3" />
    </personFlow> -->
</routes>